Bicyclic
     RDKit          2D

117123  0  0  0  0  0  0  0  0999 V2000
   -2.5775  -11.3273    0.0000 C   0  0  0  0  0  0  0  0  0  0  0  0
   -3.1188   -9.9284    0.0000 C   0  0  0  0  0  0  0  0  0  0  0  0
   -2.1780   -8.7601    0.0000 O   0  0  0  0  0  0  0  0  0  0  0  0
   -4.6010   -9.6977    0.0000 N   0  0  0  0  0  0  0  0  0  0  0  0
   -5.1423   -8.2988    0.0000 C   0  0  0  0  0  0  0  0  0  0  0  0
   -3.6460   -8.1939    0.0000 C   0  0  0  0  0  0  0  0  0  0  0  0
   -6.6244   -8.0681    0.0000 C   0  0  0  0  0  0  0  0  0  0  0  0
   -6.4080   -9.5524    0.0000 O   0  0  0  0  0  0  0  0  0  0  0  0
   -2.2105   -7.7586    0.0000 S   0  0  0  0  0  0  0  0  0  0  0  0
   -8.0181   -7.5134    0.0000 N   0  0  0  0  0  0  0  0  0  0  0  0
   -9.2534   -6.6625    0.0000 C   0  0  0  0  0  0  0  0  0  0  0  0
   -9.7024   -8.0938   -0.0000 C   0  0  0  0  0  0  0  0  0  0  0  0
  -10.2684   -5.5581   -0.0000 C   0  0  0  0  0  0  0  0  0  0  0  0
  -11.0246   -6.8535   -0.0000 O   0  0  0  0  0  0  0  0  0  0  0  0
  -11.1664   -8.4205   -0.0000 O   0  0  0  0  0  0  0  0  0  0  0  0
  -11.0122   -4.2555   -0.0000 N   0  0  0  0  0  0  0  0  0  0  0  0
  -11.4474   -2.8200   -0.0000 C   0  0  0  0  0  0  0  0  0  0  0  0
  -12.6908   -3.6591   -0.0000 C   0  0  0  0  0  0  0  0  0  0  0  0
  -11.5524   -1.3237   -0.0000 C   0  0  0  0  0  0  0  0  0  0  0  0
  -12.9513   -1.8650   -0.0000 O   0  0  0  0  0  0  0  0  0  0  0  0
  -14.0391   -3.0018   -0.0000 C   0  0  0  0  0  0  0  0  0  0  0  0
  -15.4298   -3.5640   -0.0000 C   0  0  0  0  0  0  0  0  0  0  0  0
  -16.3942   -2.4151   -0.0000 C   0  0  0  0  0  0  0  0  0  0  0  0
  -15.5996   -1.1428   -0.0000 N   0  0  0  0  0  0  0  0  0  0  0  0
  -14.1441   -1.5054   -0.0000 C   0  0  0  0  0  0  0  0  0  0  0  0
  -15.9426   -4.9736   -0.0000 C   0  0  0  0  0  0  0  0  0  0  0  0
  -17.4197   -5.2344   -0.0000 C   0  0  0  0  0  0  0  0  0  0  0  0
  -18.3841   -4.0855   -0.0000 C   0  0  0  0  0  0  0  0  0  0  0  0
  -17.8714   -2.6758   -0.0000 C   0  0  0  0  0  0  0  0  0  0  0  0
  -11.3217    0.1585   -0.0000 N   0  0  0  0  0  0  0  0  0  0  0  0
  -10.7670    1.5521   -0.0000 C   0  0  0  0  0  0  0  0  0  0  0  0
   -9.9161    2.7874   -0.0000 C   0  0  0  0  0  0  0  0  0  0  0  0
  -11.3473    3.2364   -0.0000 O   0  0  0  0  0  0  0  0  0  0  0  0
  -12.8186    0.2553   -0.0000 C   0  0  0  0  0  0  0  0  0  0  0  0
  -13.1890    1.7089   -0.0000 C   0  0  0  0  0  0  0  0  0  0  0  0
  -11.9211    2.5103   -0.0000 C   0  0  0  0  0  0  0  0  0  0  0  0
   -8.8117    3.8024   -0.0000 N   0  0  0  0  0  0  0  0  0  0  0  0
   -7.5090    4.5462   -0.0000 C   0  0  0  0  0  0  0  0  0  0  0  0
   -8.6037    5.5717   -0.0000 C   0  0  0  0  0  0  0  0  0  0  0  0
   -6.0736    4.9815    0.0000 C   0  0  0  0  0  0  0  0  0  0  0  0
   -6.9126    6.2248   -0.0000 O   0  0  0  0  0  0  0  0  0  0  0  0
   -4.5773    5.0864    0.0000 N   0  0  0  0  0  0  0  0  0  0  0  0
   -3.0951    4.8557    0.0000 C   0  0  0  0  0  0  0  0  0  0  0  0
   -3.3116    6.3400    0.0000 C   0  0  0  0  0  0  0  0  0  0  0  0
   -1.7014    4.3010    0.0000 C   0  0  0  0  0  0  0  0  0  0  0  0
   -1.5822    5.7963    0.0000 O   0  0  0  0  0  0  0  0  0  0  0  0
   -2.1343    7.2696    0.0000 C   0  0  0  0  0  0  0  0  0  0  0  0
   -2.3508    8.7539    0.0000 C   0  0  0  0  0  0  0  0  0  0  0  0
   -1.1736    9.6835    0.0000 N   0  0  0  0  0  0  0  0  0  0  0  0
   -1.3901   11.1678    0.0000 C   0  0  0  0  0  0  0  0  0  0  0  0
   -0.2128   12.0975    0.0000 N   0  0  0  0  0  0  0  0  0  0  0  0
   -2.7837   11.7225    0.0000 N   0  0  0  0  0  0  0  0  0  0  0  0
   -0.4661    3.4501    0.0000 N   0  0  0  0  0  0  0  0  0  0  0  0
    0.5489    2.3457    0.0000 C   0  0  0  0  0  0  0  0  0  0  0  0
    1.2926    1.0431    0.0000 C   0  0  0  0  0  0  0  0  0  0  0  0
    1.1035    3.7394    0.0000 C   0  0  0  0  0  0  0  0  0  0  0  0
   -0.3917    3.8586    0.0000 O   0  0  0  0  0  0  0  0  0  0  0  0
    1.7279   -0.3924    0.0000 S   0  0  0  0  0  0  0  0  0  0  0  0
    1.9544    4.9747    0.0000 N   0  0  0  0  0  0  0  0  0  0  0  0
    3.0589    5.9896    0.0000 C   0  0  0  0  0  0  0  0  0  0  0  0
    1.7635    6.7459    0.0000 C   0  0  0  0  0  0  0  0  0  0  0  0
    4.3615    6.7334    0.0000 C   0  0  0  0  0  0  0  0  0  0  0  0
    3.2668    7.7589    0.0000 O   0  0  0  0  0  0  0  0  0  0  0  0
    1.7706    8.2458    0.0000 C   0  0  0  0  0  0  0  0  0  0  0  0
    0.4752    9.0020    0.0000 C   0  0  0  0  0  0  0  0  0  0  0  0
    3.0733    8.9896    0.0000 C   0  0  0  0  0  0  0  0  0  0  0  0
    5.7970    7.1687    0.0000 N   0  0  0  0  0  0  0  0  0  0  0  0
    7.2933    7.2736    0.0000 C   0  0  0  0  0  0  0  0  0  0  0  0
    6.7520    8.6725    0.0000 C   0  0  0  0  0  0  0  0  0  0  0  0
    8.7755    7.0429    0.0000 C   0  0  0  0  0  0  0  0  0  0  0  0
    8.5590    8.5272    0.0000 O   0  0  0  0  0  0  0  0  0  0  0  0
    7.6928    9.8408    0.0000 C   0  0  0  0  0  0  0  0  0  0  0  0
    7.4542   11.3217    0.0000 N   0  0  0  0  0  0  0  0  0  0  0  0
    8.7888   12.0063    0.0000 C   0  0  0  0  0  0  0  0  0  0  0  0
    9.8524   10.9485    0.0000 N   0  0  0  0  0  0  0  0  0  0  0  0
    9.1750    9.6101    0.0000 C   0  0  0  0  0  0  0  0  0  0  0  0
   10.1691    6.4883    0.0000 N   0  0  0  0  0  0  0  0  0  0  0  0
   11.4044    5.6374    0.0000 C   0  0  0  0  0  0  0  0  0  0  0  0
   11.8534    7.0686    0.0000 C   0  0  0  0  0  0  0  0  0  0  0  0
   12.4194    4.5329    0.0000 C   0  0  0  0  0  0  0  0  0  0  0  0
   13.1756    5.8283    0.0000 O   0  0  0  0  0  0  0  0  0  0  0  0
   13.3174    7.3954    0.0000 C   0  0  0  0  0  0  0  0  0  0  0  0
   13.7664    8.8266    0.0000 C   0  0  0  0  0  0  0  0  0  0  0  0
   12.7514    9.9310    0.0000 O   0  0  0  0  0  0  0  0  0  0  0  0
   15.2303    9.1534    0.0000 N   0  0  0  0  0  0  0  0  0  0  0  0
   13.1632    3.2303    0.0000 N   0  0  0  0  0  0  0  0  0  0  0  0
   13.5984    1.7948    0.0000 C   0  0  0  0  0  0  0  0  0  0  0  0
   14.8418    2.6339    0.0000 C   0  0  0  0  0  0  0  0  0  0  0  0
   16.1902    1.9766    0.0000 C   0  0  0  0  0  0  0  0  0  0  0  0
   13.7034    0.2985    0.0000 C   0  0  0  0  0  0  0  0  0  0  0  0
   15.1023    0.8398    0.0000 O   0  0  0  0  0  0  0  0  0  0  0  0
   17.4335    2.8156    0.0000 O   0  0  0  0  0  0  0  0  0  0  0  0
   16.2951    0.4803    0.0000 O   0  0  0  0  0  0  0  0  0  0  0  0
   13.4727   -1.1837    0.0000 N   0  0  0  0  0  0  0  0  0  0  0  0
   12.9180   -2.5773    0.0000 C   0  0  0  0  0  0  0  0  0  0  0  0
   14.4133   -2.6966    0.0000 C   0  0  0  0  0  0  0  0  0  0  0  0
   12.0671   -3.8126    0.0000 C   0  0  0  0  0  0  0  0  0  0  0  0
   13.4983   -4.2616    0.0000 O   0  0  0  0  0  0  0  0  0  0  0  0
   15.0576   -4.0511    0.0000 C   0  0  0  0  0  0  0  0  0  0  0  0
   16.5529   -4.1704    0.0000 C   0  0  0  0  0  0  0  0  0  0  0  0
   14.2067   -5.2864    0.0000 C   0  0  0  0  0  0  0  0  0  0  0  0
   10.9627   -4.8276    0.0000 N   0  0  0  0  0  0  0  0  0  0  0  0
    9.6601   -5.5714    0.0000 C   0  0  0  0  0  0  0  0  0  0  0  0
    8.2246   -6.0066    0.0000 C   0  0  0  0  0  0  0  0  0  0  0  0
   10.7547   -6.5969    0.0000 C   0  0  0  0  0  0  0  0  0  0  0  0
   12.1902   -6.1616    0.0000 O   0  0  0  0  0  0  0  0  0  0  0  0
    6.7283   -6.1116    0.0000 S   0  0  0  0  0  0  0  0  0  0  0  0
   10.4140   -8.0577    0.0000 N   0  0  0  0  0  0  0  0  0  0  0  0
    1.6022   -3.3709    0.0000 C   0  0  0  0  0  0  0  0  0  0  0  0
    1.0475   -4.7645    0.0000 C   0  0  0  0  0  0  0  0  0  0  0  0
    0.1966   -5.9998    0.0000 C   0  0  0  0  0  0  0  0  0  0  0  0
    2.7108   -6.2992    0.0000 C   0  0  0  0  0  0  0  0  0  0  0  0
    3.8524   -5.3262    0.0000 C   0  0  0  0  0  0  0  0  0  0  0  0
    2.6171   -4.4753    0.0000 C   0  0  0  0  0  0  0  0  0  0  0  0
    1.8328   -1.8887    0.0000 C   0  0  0  0  0  0  0  0  0  0  0  0
   -0.9079   -7.0148    0.0000 C   0  0  0  0  0  0  0  0  0  0  0  0
    5.2461   -5.8809    0.0000 C   0  0  0  0  0  0  0  0  0  0  0  0
  1  2  1  0
  2  3  2  0
  5  4  1  6
  5  6  1  0
  5  7  1  0
  6  9  1  0
  7  8  2  0
 11 10  1  0
 11 12  1  1
 11 13  1  0
 12 15  1  0
 13 14  2  0
 17 16  1  0
 17 18  1  1
 17 19  1  0
 18 21  1  0
 19 20  2  0
 21 22  1  0
 21 25  2  0
 22 23  2  0
 22 26  1  0
 23 24  1  0
 23 29  1  0
 24 25  1  0
 26 27  2  0
 27 28  1  0
 28 29  2  0
 30 31  1  0
 30 34  1  0
 31 32  1  0
 31 36  1  1
 32 33  2  0
 34 35  1  0
 35 36  1  0
 37 38  1  0
 38 39  1  1
 38 40  1  0
 40 41  2  0
 43 42  1  0
 43 44  1  1
 43 45  1  0
 44 47  1  0
 45 46  2  0
 47 48  1  0
 48 49  1  0
 49 50  1  0
 50 51  2  0
 50 52  1  0
 54 53  1  6
 54 55  1  0
 54 56  1  0
 55 58  1  0
 56 57  2  0
 60 59  1  0
 60 61  1  1
 60 62  1  0
 61 64  1  0
 62 63  2  0
 64 65  1  0
 64 66  1  0
 68 67  1  0
 68 69  1  1
 68 70  1  0
 69 72  1  0
 70 71  2  0
 72 73  1  0
 72 76  2  0
 73 74  2  0
 74 75  1  0
 75 76  1  0
 78 77  1  0
 78 79  1  1
 78 80  1  0
 79 82  1  0
 80 81  2  0
 82 83  1  0
 83 84  2  0
 83 85  1  0
 87 86  1  0
 87 88  1  1
 87 90  1  0
 88 89  1  0
 89 93  1  0
 89 92  2  0
 90 91  2  0
 95 94  1  0
 95 96  1  1
 95 97  1  0
 96 99  1  0
 97 98  2  0
 99100  1  0
 99101  1  0
103102  1  0
103104  1  0
103105  1  6
104107  1  0
105106  2  0
109110  2  0
110111  1  0
111112  2  0
112113  1  0
113114  2  0
109114  1  0
109115  1  0
111116  1  0
113117  1  0
 40 42  1  0
 97102  1  0
105108  1  0
 45 53  1  0
 70 77  1  0
 80 86  1  0
 90 94  1  0
  7 10  1  0
107117  1  0
 19 30  1  0
 56 59  1  0
  9116  1  0
  2  4  1  0
 13 16  1  0
 58115  1  0
 62 67  1  0
 32 37  1  0
M  END
>  <BILN>  (1) 
Ac-C(1,3)-S-W-P-A-R-C(2,3)-L-H-Q-D-L-C(3,3)-NH2.135TMB(1,1)(2,2)(3,3)

>  <HELM>  (1) 
PEPTIDE1{[Ac].C.S.W.P.A.R.C.L.H.Q.D.L.C.[NH2]}|PEPTIDE2{[135TMB]}$PEPTIDE1,PEPTIDE2,2:R3-1:R1|PEPTIDE1,PEPTIDE2,8:R3-1:R2|PEPTIDE1,PEPTIDE2,14:R3-1:R3

$$$$
