Cyclosporin A
     RDKit          2D

 85 85  0  0  0  0  0  0  0  0999 V2000
   -1.1001   -7.4110    0.0000 C   0  0  0  0  0  0  0  0  0  0  0  0
    0.3809   -7.6485    0.0000 C   0  0  0  0  0  0  0  0  0  0  0  0
   -2.5095   -6.8976    0.0000 N   0  0  0  0  0  0  0  0  0  0  0  0
   -0.3279   -8.9705    0.0000 O   0  0  0  0  0  0  0  0  0  0  0  0
   -0.8401   -8.8883    0.0000 C   0  0  0  0  0  0  0  0  0  0  0  0
    0.5692   -9.4018   -0.0000 C   0  0  0  0  0  0  0  0  0  0  0  0
    1.8802   -7.6014    0.0000 N   0  0  0  0  0  0  0  0  0  0  0  0
    3.3434   -7.2714    0.0000 C   0  0  0  0  0  0  0  0  0  0  0  0
    4.7178   -6.6704    0.0000 C   0  0  0  0  0  0  0  0  0  0  0  0
    4.8362   -8.1657    0.0000 O   0  0  0  0  0  0  0  0  0  0  0  0
    1.4344   -9.0336    0.0000 C   0  0  0  0  0  0  0  0  0  0  0  0
    9.8344   -7.5355   -0.0000 C   0  0  0  0  0  0  0  0  0  0  0  0
    9.1688   -6.1913   -0.0000 C   0  0  0  0  0  0  0  0  0  0  0  0
   10.0000   -4.9427   -0.0000 C   0  0  0  0  0  0  0  0  0  0  0  0
    7.6718   -6.0957    0.0000 C   0  0  0  0  0  0  0  0  0  0  0  0
    7.0061   -4.7515    0.0000 C   0  0  0  0  0  0  0  0  0  0  0  0
    5.9536   -5.8202    0.0000 N   0  0  0  0  0  0  0  0  0  0  0  0
    7.8374   -3.5029    0.0000 C   0  0  0  0  0  0  0  0  0  0  0  0
    8.7454   -4.6968    0.0000 O   0  0  0  0  0  0  0  0  0  0  0  0
    6.3528   -7.2661    0.0000 C   0  0  0  0  0  0  0  0  0  0  0  0
    8.4173   -2.1195    0.0000 N   0  0  0  0  0  0  0  0  0  0  0  0
    8.7250   -0.6514    0.0000 C   0  0  0  0  0  0  0  0  0  0  0  0
   10.0117   -1.4223    0.0000 C   0  0  0  0  0  0  0  0  0  0  0  0
    8.7493    0.8484    0.0000 C   0  0  0  0  0  0  0  0  0  0  0  0
   10.1587    0.3349    0.0000 O   0  0  0  0  0  0  0  0  0  0  0  0
    9.9875   -2.9221    0.0000 C   0  0  0  0  0  0  0  0  0  0  0  0
   11.3227   -0.6934   -0.0000 C   0  0  0  0  0  0  0  0  0  0  0  0
   11.6617    5.1433   -0.0000 C   0  0  0  0  0  0  0  0  0  0  0  0
   10.1624    5.0962   -0.0000 C   0  0  0  0  0  0  0  0  0  0  0  0
    9.3720    6.3710   -0.0000 C   0  0  0  0  0  0  0  0  0  0  0  0
    9.4536    3.7742    0.0000 C   0  0  0  0  0  0  0  0  0  0  0  0
    7.9544    3.7271    0.0000 C   0  0  0  0  0  0  0  0  0  0  0  0
    8.4893    2.3257    0.0000 N   0  0  0  0  0  0  0  0  0  0  0  0
    7.1639    5.0019    0.0000 C   0  0  0  0  0  0  0  0  0  0  0  0
    8.6272    5.3319    0.0000 O   0  0  0  0  0  0  0  0  0  0  0  0
    9.9703    2.0882    0.0000 C   0  0  0  0  0  0  0  0  0  0  0  0
    6.1465    6.1041    0.0000 N   0  0  0  0  0  0  0  0  0  0  0  0
    4.9389    6.9938    0.0000 C   0  0  0  0  0  0  0  0  0  0  0  0
    6.1747    7.8441    0.0000 C   0  0  0  0  0  0  0  0  0  0  0  0
    3.5847    7.6390    0.0000 C   0  0  0  0  0  0  0  0  0  0  0  0
    4.6372    8.7077    0.0000 O   0  0  0  0  0  0  0  0  0  0  0  0
    2.1329    8.0161    0.0000 N   0  0  0  0  0  0  0  0  0  0  0  0
    0.6359    8.1117    0.0000 C   0  0  0  0  0  0  0  0  0  0  0  0
    1.2159    9.4951    0.0000 C   0  0  0  0  0  0  0  0  0  0  0  0
   -0.8521    7.9223    0.0000 C   0  0  0  0  0  0  0  0  0  0  0  0
   -0.5444    9.3904    0.0000 O   0  0  0  0  0  0  0  0  0  0  0  0
   -5.5177   10.1939   -0.0000 C   0  0  0  0  0  0  0  0  0  0  0  0
   -5.2577    8.7166   -0.0000 C   0  0  0  0  0  0  0  0  0  0  0  0
   -6.4071    7.7528   -0.0000 C   0  0  0  0  0  0  0  0  0  0  0  0
   -3.8483    8.2031    0.0000 C   0  0  0  0  0  0  0  0  0  0  0  0
   -3.5883    6.7258    0.0000 C   0  0  0  0  0  0  0  0  0  0  0  0
   -2.2773    7.4547    0.0000 N   0  0  0  0  0  0  0  0  0  0  0  0
   -4.7377    5.7620    0.0000 C   0  0  0  0  0  0  0  0  0  0  0  0
   -5.2726    7.1634    0.0000 O   0  0  0  0  0  0  0  0  0  0  0  0
   -2.2530    8.9545    0.0000 C   0  0  0  0  0  0  0  0  0  0  0  0
   -9.8908    5.1505   -0.0000 C   0  0  0  0  0  0  0  0  0  0  0  0
   -8.8734    4.0483   -0.0000 C   0  0  0  0  0  0  0  0  0  0  0  0
   -9.3192    2.6161   -0.0000 C   0  0  0  0  0  0  0  0  0  0  0  0
   -7.4101    4.3783    0.0000 C   0  0  0  0  0  0  0  0  0  0  0  0
   -6.3927    3.2761    0.0000 C   0  0  0  0  0  0  0  0  0  0  0  0
   -5.6839    4.5981    0.0000 N   0  0  0  0  0  0  0  0  0  0  0  0
   -6.8385    1.8439    0.0000 C   0  0  0  0  0  0  0  0  0  0  0  0
   -8.0461    2.7336    0.0000 O   0  0  0  0  0  0  0  0  0  0  0  0
   -6.4743    5.8729    0.0000 C   0  0  0  0  0  0  0  0  0  0  0  0
   -7.0052    0.3532    0.0000 N   0  0  0  0  0  0  0  0  0  0  0  0
   -6.8868   -1.1421    0.0000 C   0  0  0  0  0  0  0  0  0  0  0  0
   -8.3386   -0.7650    0.0000 C   0  0  0  0  0  0  0  0  0  0  0  0
   -6.4876   -2.5880    0.0000 C   0  0  0  0  0  0  0  0  0  0  0  0
   -7.9845   -2.4924    0.0000 O   0  0  0  0  0  0  0  0  0  0  0  0
   -8.7379    0.6809    0.0000 C   0  0  0  0  0  0  0  0  0  0  0  0
   -9.3912   -1.8337   -0.0000 C   0  0  0  0  0  0  0  0  0  0  0  0
   -8.3594    0.9983    0.0000 C   0  0  0  0  0  0  0  0  0  0  0  0
   -5.8219   -3.9322    0.0000 N   0  0  0  0  0  0  0  0  0  0  0  0
   -4.9138   -5.1261    0.0000 C   0  0  0  0  0  0  0  0  0  0  0  0
   -6.3391   -5.5937    0.0000 C   0  0  0  0  0  0  0  0  0  0  0  0
   -3.7963   -6.1266    0.0000 C   0  0  0  0  0  0  0  0  0  0  0  0
   -4.1039   -7.5948    0.0000 O   0  0  0  0  0  0  0  0  0  0  0  0
   -6.6468   -7.0619   -0.0000 C   0  0  0  0  0  0  0  0  0  0  0  0
   -7.4567   -4.5932    0.0000 O   0  0  0  0  0  0  0  0  0  0  0  0
   -7.3099   -4.1216    0.0000 C   0  0  0  0  0  0  0  0  0  0  0  0
   -5.5292   -8.0624   -0.0000 C   0  0  0  0  0  0  0  0  0  0  0  0
   -5.8368   -9.5305   -0.0000 C   0  0  0  0  0  0  0  0  0  0  0  0
   -7.2621   -9.9981    0.0000 C   0  0  0  0  0  0  0  0  0  0  0  0
   -7.5698  -11.4662    0.0000 C   0  0  0  0  0  0  0  0  0  0  0  0
   -8.0720   -7.5295   -0.0000 C   0  0  0  0  0  0  0  0  0  0  0  0
  1  2  1  0
  1  3  1  0
  1  5  1  6
  2  4  2  0
  5  6  1  0
  7  8  1  0
  7 11  1  0
  8  9  1  0
  9 10  2  0
 12 13  1  0
 13 14  1  0
 13 15  1  0
 16 15  1  6
 16 17  1  0
 16 18  1  0
 17 20  1  0
 18 19  2  0
 22 21  1  0
 22 23  1  6
 22 24  1  0
 23 26  1  0
 23 27  1  0
 24 25  2  0
 28 29  1  0
 29 30  1  0
 29 31  1  0
 32 31  1  6
 32 33  1  0
 32 34  1  0
 33 36  1  0
 34 35  2  0
 37 38  1  0
 38 39  1  6
 38 40  1  0
 40 41  2  0
 42 43  1  0
 43 44  1  1
 43 45  1  0
 45 46  2  0
 47 48  1  0
 48 49  1  0
 48 50  1  0
 51 50  1  6
 51 52  1  0
 51 53  1  0
 52 55  1  0
 53 54  2  0
 56 57  1  0
 57 58  1  0
 57 59  1  0
 60 59  1  6
 60 61  1  0
 60 62  1  0
 61 64  1  0
 62 63  2  0
 66 65  1  0
 65 72  1  0
 66 67  1  6
 66 68  1  0
 67 70  1  0
 67 71  1  0
 68 69  2  0
 74 73  1  0
 74 75  1  0
 74 76  1  6
 75 78  1  0
 75 79  1  1
 76 77  2  0
 73 80  1  0
 78 81  1  0
 81 82  1  0
 82 83  2  0
 83 84  1  0
 78 85  1  1
 45 52  1  0
 40 42  1  0
 62 65  1  0
  3 76  1  0
 18 21  1  0
 24 33  1  0
 34 37  1  0
 53 61  1  0
  9 17  1  0
  2  7  1  0
 68 73  1  0
M  END
>  <BILN>  (1) 
Abu(1,1)-Sar-NMeL-V-NMeL-A-DAla-NMeL-NMeL-NMeV-NMeThr4RBut2enyl(1,2)

>  <HELM>  (1) 
PEPTIDE1{[Abu].[Sar].[NMeL].V.[NMeL].A.[DAla].[NMeL].[NMeL].[NMeV].[NMeThr4RBut2enyl]}$PEPTIDE1,PEPTIDE1,1:R1-11:R2$$$

$$$$
