Hepcidin
     RDKit          2D

187195  0  0  0  0  0  0  0  0999 V2000
    4.6476    6.3114    0.0000 N   0  0  0  0  0  0  0  0  0  0  0  0
    6.1360    6.4976    0.0000 C   0  0  0  0  0  0  0  0  0  0  0  0
    7.0415    5.3017    0.0000 C   0  0  0  0  0  0  0  0  0  0  0  0
    8.5299    5.4879    0.0000 C   0  0  0  0  0  0  0  0  0  0  0  0
    6.7190    7.8797    0.0000 C   0  0  0  0  0  0  0  0  0  0  0  0
    5.8135    9.0756    0.0000 O   0  0  0  0  0  0  0  0  0  0  0  0
    9.4353    4.2920    0.0000 O   0  0  0  0  0  0  0  0  0  0  0  0
    9.1128    6.8700    0.0000 O   0  0  0  0  0  0  0  0  0  0  0  0
    8.2074    8.0658    0.0000 N   0  0  0  0  0  0  0  0  0  0  0  0
    8.7903    9.4479    0.0000 C   0  0  0  0  0  0  0  0  0  0  0  0
    7.8849   10.6438    0.0000 C   0  0  0  0  0  0  0  0  0  0  0  0
   10.2787    9.6341    0.0000 C   0  0  0  0  0  0  0  0  0  0  0  0
   11.1842    8.4382    0.0000 O   0  0  0  0  0  0  0  0  0  0  0  0
    8.4678   12.0259    0.0000 C   0  0  0  0  0  0  0  0  0  0  0  0
    6.3965   10.4576    0.0000 O   0  0  0  0  0  0  0  0  0  0  0  0
   10.8617   11.0162    0.0000 N   0  0  0  0  0  0  0  0  0  0  0  0
   12.3501   11.2024    0.0000 C   0  0  0  0  0  0  0  0  0  0  0  0
   13.2555   10.0065    0.0000 C   0  0  0  0  0  0  0  0  0  0  0  0
   12.9330   12.5845    0.0000 C   0  0  0  0  0  0  0  0  0  0  0  0
   12.0276   13.7804    0.0000 O   0  0  0  0  0  0  0  0  0  0  0  0
   14.7439   10.1927    0.0000 C   0  0  0  0  0  0  0  0  0  0  0  0
   15.6015   11.4234    0.0000 N   0  0  0  0  0  0  0  0  0  0  0  0
   17.0369   10.9881    0.0000 C   0  0  0  0  0  0  0  0  0  0  0  0
   17.0665    9.4884    0.0000 N   0  0  0  0  0  0  0  0  0  0  0  0
   15.6494    8.9968    0.0000 C   0  0  0  0  0  0  0  0  0  0  0  0
   14.4214   12.7707    0.0000 N   0  0  0  0  0  0  0  0  0  0  0  0
   15.0044   14.1528    0.0000 C   0  0  0  0  0  0  0  0  0  0  0  0
   14.0989   15.3487    0.0000 C   0  0  0  0  0  0  0  0  0  0  0  0
   16.4928   14.3390    0.0000 C   0  0  0  0  0  0  0  0  0  0  0  0
   17.3982   13.1431    0.0000 O   0  0  0  0  0  0  0  0  0  0  0  0
   14.6819   16.7308   -0.0000 C   0  0  0  0  0  0  0  0  0  0  0  0
   16.1703   16.9170   -0.0000 C   0  0  0  0  0  0  0  0  0  0  0  0
   16.7532   18.2990   -0.0000 C   0  0  0  0  0  0  0  0  0  0  0  0
   15.8478   19.4949   -0.0000 C   0  0  0  0  0  0  0  0  0  0  0  0
   14.3594   19.3087   -0.0000 C   0  0  0  0  0  0  0  0  0  0  0  0
   13.7764   17.9267   -0.0000 C   0  0  0  0  0  0  0  0  0  0  0  0
   17.0757   15.7211    0.0000 N   0  0  0  0  0  0  0  0  0  0  0  0
   18.4929   16.2126    0.0000 C   0  0  0  0  0  0  0  0  0  0  0  0
   19.8065   15.4884    0.0000 C   0  0  0  0  0  0  0  0  0  0  0  0
   19.8360   13.9887    0.0000 O   0  0  0  0  0  0  0  0  0  0  0  0
   16.1703   16.9170   -0.0000 C   0  0  0  0  0  0  0  0  0  0  0  0
   17.0278   18.1476   -0.0000 C   0  0  0  0  0  0  0  0  0  0  0  0
   18.4633   17.7123   -0.0000 C   0  0  0  0  0  0  0  0  0  0  0  0
   21.0904   16.2639    0.0000 N   0  0  0  0  0  0  0  0  0  0  0  0
   22.4040   15.5397    0.0000 C   0  0  0  0  0  0  0  0  0  0  0  0
   22.4336   14.0400    0.0000 C   0  0  0  0  0  0  0  0  0  0  0  0
   23.6880   16.3151    0.0000 C   0  0  0  0  0  0  0  0  0  0  0  0
   23.6584   17.8149    0.0000 O   0  0  0  0  0  0  0  0  0  0  0  0
   21.1496   13.2645    0.0000 C   0  0  0  0  0  0  0  0  0  0  0  0
   23.7472   13.3157    0.0000 C   0  0  0  0  0  0  0  0  0  0  0  0
   23.7768   11.8160    0.0000 C   0  0  0  0  0  0  0  0  0  0  0  0
   25.0016   15.5909    0.0000 N   0  0  0  0  0  0  0  0  0  0  0  0
   26.2856   16.3664    0.0000 C   0  0  0  0  0  0  0  0  0  0  0  0
   25.1513   17.3479    0.0000 C   0  0  0  0  0  0  0  0  0  0  0  0
   27.5992   15.6422    0.0000 C   0  0  0  0  0  0  0  0  0  0  0  0
   26.5045   14.6167    0.0000 O   0  0  0  0  0  0  0  0  0  0  0  0
   24.2458   18.5438    0.0000 S   0  0  0  0  0  0  0  0  0  0  0  0
   29.0346   15.2069    0.0000 N   0  0  0  0  0  0  0  0  0  0  0  0
   30.5292   15.0796    0.0000 C   0  0  0  0  0  0  0  0  0  0  0  0
   29.9463   13.6975    0.0000 C   0  0  0  0  0  0  0  0  0  0  0  0
   32.0176   15.2657    0.0000 C   0  0  0  0  0  0  0  0  0  0  0  0
   31.7347   13.7927    0.0000 O   0  0  0  0  0  0  0  0  0  0  0  0
   28.4579   13.5113    0.0000 C   0  0  0  0  0  0  0  0  0  0  0  0
   30.8517   12.5016    0.0000 C   0  0  0  0  0  0  0  0  0  0  0  0
   30.2687   11.1195    0.0000 C   0  0  0  0  0  0  0  0  0  0  0  0
   33.4348   15.7573    0.0000 N   0  0  0  0  0  0  0  0  0  0  0  0
   34.7188   16.5328    0.0000 C   0  0  0  0  0  0  0  0  0  0  0  0
   35.0595   15.0720    0.0000 C   0  0  0  0  0  0  0  0  0  0  0  0
   35.8135   17.5583    0.0000 C   0  0  0  0  0  0  0  0  0  0  0  0
   36.4505   16.2003    0.0000 O   0  0  0  0  0  0  0  0  0  0  0  0
   36.4950   14.6367    0.0000 C   0  0  0  0  0  0  0  0  0  0  0  0
   36.8357   13.1760    0.0000 C   0  0  0  0  0  0  0  0  0  0  0  0
   38.2712   12.7407    0.0000 C   0  0  0  0  0  0  0  0  0  0  0  0
   39.3659   13.7662    0.0000 C   0  0  0  0  0  0  0  0  0  0  0  0
   39.0251   15.2269    0.0000 C   0  0  0  0  0  0  0  0  0  0  0  0
   37.5897   15.6622    0.0000 C   0  0  0  0  0  0  0  0  0  0  0  0
   36.6710   18.7890    0.0000 N   0  0  0  0  0  0  0  0  0  0  0  0
   38.1246   19.6911    0.0000 C   0  0  0  0  0  0  0  0  0  0  0  0
   36.7334   19.5802    0.0000 C   0  0  0  0  0  0  0  0  0  0  0  0
   38.3518   21.1738    0.0000 C   0  0  0  0  0  0  0  0  0  0  0  0
   39.8134   20.8364    0.0000 O   0  0  0  0  0  0  0  0  0  0  0  0
   36.2234   19.5463    0.0000 S   0  0  0  0  0  0  0  0  0  0  0  0
   37.9132   22.6082    0.0000 N   0  0  0  0  0  0  0  0  0  0  0  0
   36.8957   23.7103    0.0000 C   0  0  0  0  0  0  0  0  0  0  0  0
   38.2641   26.4173    0.0000 C   0  0  0  0  0  0  0  0  0  0  0  0
   35.5008   24.2618    0.0000 C   0  0  0  0  0  0  0  0  0  0  0  0
   36.1550   25.6117    0.0000 O   0  0  0  0  0  0  0  0  0  0  0  0
   37.9889   27.8918    0.0000 S   0  0  0  0  0  0  0  0  0  0  0  0
   34.0047   24.1534    0.0000 N   0  0  0  0  0  0  0  0  0  0  0  0
   32.7038   23.4067    0.0000 C   0  0  0  0  0  0  0  0  0  0  0  0
   31.8557   22.1694    0.0000 C   0  0  0  0  0  0  0  0  0  0  0  0
   30.6853   23.1076    0.0000 O   0  0  0  0  0  0  0  0  0  0  0  0
   31.6285   20.6867    0.0000 N   0  0  0  0  0  0  0  0  0  0  0  0
   32.0671   19.2523    0.0000 C   0  0  0  0  0  0  0  0  0  0  0  0
   33.4597   19.3431    0.0000 C   0  0  0  0  0  0  0  0  0  0  0  0
   30.5682   19.3121    0.0000 C   0  0  0  0  0  0  0  0  0  0  0  0
   30.9529   17.8623    0.0000 O   0  0  0  0  0  0  0  0  0  0  0  0
   33.9692   19.3830    0.0000 S   0  0  0  0  0  0  0  0  0  0  0  0
   29.1203   19.7039    0.0000 N   0  0  0  0  0  0  0  0  0  0  0  0
   27.7959   20.4081    0.0000 C   0  0  0  0  0  0  0  0  0  0  0  0
   26.6614   21.3894    0.0000 C   0  0  0  0  0  0  0  0  0  0  0  0
   26.6064   21.3219    0.0000 C   0  0  0  0  0  0  0  0  0  0  0  0
   26.0947   19.9119    0.0000 O   0  0  0  0  0  0  0  0  0  0  0  0
   25.7737   22.5985   -0.0000 S   0  0  0  0  0  0  0  0  0  0  0  0
   25.6411   22.4701   -0.0000 N   0  0  0  0  0  0  0  0  0  0  0  0
   24.9452   23.7989   -0.0000 C   0  0  0  0  0  0  0  0  0  0  0  0
   23.8888   22.7340   -0.0000 C   0  0  0  0  0  0  0  0  0  0  0  0
   24.5512   25.2462   -0.0000 C   0  0  0  0  0  0  0  0  0  0  0  0
   23.2906   24.4334   -0.0000 O   0  0  0  0  0  0  0  0  0  0  0  0
   22.4383   23.1165   -0.0000 C   0  0  0  0  0  0  0  0  0  0  0  0
   21.7521   24.4503   -0.0000 N   0  0  0  0  0  0  0  0  0  0  0  0
   20.2715   24.2098   -0.0000 C   0  0  0  0  0  0  0  0  0  0  0  0
   20.0427   22.7274   -0.0000 N   0  0  0  0  0  0  0  0  0  0  0  0
   21.3819   22.0517   -0.0000 C   0  0  0  0  0  0  0  0  0  0  0  0
   24.4776   26.7444   -0.0000 N   0  0  0  0  0  0  0  0  0  0  0  0
   24.7278   28.2234   -0.0000 C   0  0  0  0  0  0  0  0  0  0  0  0
   23.2423   28.0150   -0.0000 C   0  0  0  0  0  0  0  0  0  0  0  0
   25.2901   29.6140   -0.0000 C   0  0  0  0  0  0  0  0  0  0  0  0
   23.7945   29.7299   -0.0000 O   0  0  0  0  0  0  0  0  0  0  0  0
   22.3191   29.1973   -0.0000 C   0  0  0  0  0  0  0  0  0  0  0  0
   20.8337   28.9889   -0.0000 C   0  0  0  0  0  0  0  0  0  0  0  0
   19.9105   30.1711   -0.0000 N   0  0  0  0  0  0  0  0  0  0  0  0
   18.4250   29.9628   -0.0000 C   0  0  0  0  0  0  0  0  0  0  0  0
   17.5019   31.1450   -0.0000 N   0  0  0  0  0  0  0  0  0  0  0  0
   17.8628   28.5721   -0.0000 N   0  0  0  0  0  0  0  0  0  0  0  0
   26.1381   30.8513   -0.0000 N   0  0  0  0  0  0  0  0  0  0  0  0
   27.2323   31.8773   -0.0000 C   0  0  0  0  0  0  0  0  0  0  0  0
   25.9237   32.6104   -0.0000 C   0  0  0  0  0  0  0  0  0  0  0  0
   28.5215   32.6441   -0.0000 C   0  0  0  0  0  0  0  0  0  0  0  0
   27.4010   33.6414   -0.0000 O   0  0  0  0  0  0  0  0  0  0  0  0
   25.9042   34.1103   -0.0000 O   0  0  0  0  0  0  0  0  0  0  0  0
   29.9454   33.1159   -0.0000 N   0  0  0  0  0  0  0  0  0  0  0  0
   31.4374   33.2705   -0.0000 C   0  0  0  0  0  0  0  0  0  0  0  0
   30.8392   34.6461   -0.0000 C   0  0  0  0  0  0  0  0  0  0  0  0
   32.9278   33.1008   -0.0000 C   0  0  0  0  0  0  0  0  0  0  0  0
   32.6393   34.5728   -0.0000 O   0  0  0  0  0  0  0  0  0  0  0  0
   31.7314   35.8519   -0.0000 C   0  0  0  0  0  0  0  0  0  0  0  0
   31.1332   37.2274   -0.0000 C   0  0  0  0  0  0  0  0  0  0  0  0
   32.0254   38.4333   -0.0000 C   0  0  0  0  0  0  0  0  0  0  0  0
   31.4272   39.8088   -0.0000 N   0  0  0  0  0  0  0  0  0  0  0  0
   34.3468   32.6146   -0.0000 N   0  0  0  0  0  0  0  0  0  0  0  0
   35.3703   31.4585    0.0000 C   0  0  0  0  0  0  0  0  0  0  0  0
   36.5048   30.4773    0.0000 C   0  0  0  0  0  0  0  0  0  0  0  0
   34.0458   32.1627   -0.0000 C   0  0  0  0  0  0  0  0  0  0  0  0
   35.1091   33.2208   -0.0000 O   0  0  0  0  0  0  0  0  0  0  0  0
   37.3925   29.2682    0.0000 S   0  0  0  0  0  0  0  0  0  0  0  0
   32.5979   32.5546   -0.0000 N   0  0  0  0  0  0  0  0  0  0  0  0
   31.0991   32.6144   -0.0000 C   0  0  0  0  0  0  0  0  0  0  0  0
   29.6246   32.3392   -0.0000 C   0  0  0  0  0  0  0  0  0  0  0  0
   29.7962   33.8293   -0.0000 O   0  0  0  0  0  0  0  0  0  0  0  0
   28.2482   31.7428   -0.0000 N   0  0  0  0  0  0  0  0  0  0  0  0
   27.0391   30.8550   -0.0000 C   0  0  0  0  0  0  0  0  0  0  0  0
   26.5472   32.2721   -0.0000 C   0  0  0  0  0  0  0  0  0  0  0  0
   26.0579   29.7205   -0.0000 C   0  0  0  0  0  0  0  0  0  0  0  0
   25.2630   30.9926   -0.0000 O   0  0  0  0  0  0  0  0  0  0  0  0
   25.0741   32.5546   -0.0000 C   0  0  0  0  0  0  0  0  0  0  0  0
   24.5822   33.9717   -0.0000 S   0  0  0  0  0  0  0  0  0  0  0  0
   23.1090   34.2542   -0.0000 C   0  0  0  0  0  0  0  0  0  0  0  0
   25.3537   28.3961   -0.0000 N   0  0  0  0  0  0  0  0  0  0  0  0
   24.9619   26.9482   -0.0000 C   0  0  0  0  0  0  0  0  0  0  0  0
   24.9020   25.4494   -0.0000 C   0  0  0  0  0  0  0  0  0  0  0  0
   24.1043   25.7175   -0.0000 C   0  0  0  0  0  0  0  0  0  0  0  0
   23.1988   26.9134   -0.0000 O   0  0  0  0  0  0  0  0  0  0  0  0
   25.1772   23.9748   -0.0000 S   0  0  0  0  0  0  0  0  0  0  0  0
   23.5213   24.3354   -0.0000 N   0  0  0  0  0  0  0  0  0  0  0  0
   23.2385   22.8623   -0.0000 C   0  0  0  0  0  0  0  0  0  0  0  0
   23.2681   21.3626   -0.0000 C   0  0  0  0  0  0  0  0  0  0  0  0
   21.9249   23.5865   -0.0000 C   0  0  0  0  0  0  0  0  0  0  0  0
   21.8953   25.0862   -0.0000 O   0  0  0  0  0  0  0  0  0  0  0  0
   23.6088   19.9018    0.0000 S   0  0  0  0  0  0  0  0  0  0  0  0
   20.6409   22.8111   -0.0000 N   0  0  0  0  0  0  0  0  0  0  0  0
   19.3273   23.5353   -0.0000 C   0  0  0  0  0  0  0  0  0  0  0  0
   19.2977   25.0350   -0.0000 C   0  0  0  0  0  0  0  0  0  0  0  0
   18.0433   22.7598   -0.0000 C   0  0  0  0  0  0  0  0  0  0  0  0
   18.0729   21.2601   -0.0000 O   0  0  0  0  0  0  0  0  0  0  0  0
   17.9841   25.7592   -0.0000 C   0  0  0  0  0  0  0  0  0  0  0  0
   17.9546   27.2589   -0.0000 C   0  0  0  0  0  0  0  0  0  0  0  0
   16.6410   27.9832   -0.0000 C   0  0  0  0  0  0  0  0  0  0  0  0
   16.6114   29.4829   -0.0000 N   0  0  0  0  0  0  0  0  0  0  0  0
   16.7298   23.4840   -0.0000 N   0  0  0  0  0  0  0  0  0  0  0  0
   15.4458   22.7085   -0.0000 C   0  0  0  0  0  0  0  0  0  0  0  0
   15.4754   21.2088   -0.0000 C   0  0  0  0  0  0  0  0  0  0  0  0
   14.1322   23.4328   -0.0000 C   0  0  0  0  0  0  0  0  0  0  0  0
   12.8482   22.6573   -0.0000 O   0  0  0  0  0  0  0  0  0  0  0  0
   14.1914   20.4334   -0.0000 C   0  0  0  0  0  0  0  0  0  0  0  0
   16.7889   20.4846   -0.0000 O   0  0  0  0  0  0  0  0  0  0  0  0
   14.1026   24.9325   -0.0000 O   0  0  0  0  0  0  0  0  0  0  0  0
  2  1  1  6
  2  3  1  0
  2  5  1  0
  3  4  1  0
  4  8  1  0
  4  7  2  0
  5  6  2  0
 10  9  1  1
 10 11  1  0
 10 12  1  0
 11 14  1  6
 11 15  1  0
 12 13  2  0
 17 16  1  0
 17 18  1  6
 17 19  1  0
 18 21  1  0
 19 20  2  0
 21 22  1  0
 21 25  2  0
 22 23  2  0
 23 24  1  0
 24 25  1  0
 27 26  1  0
 27 28  1  1
 27 29  1  0
 28 31  1  0
 29 30  2  0
 31 32  2  0
 31 36  1  0
 32 33  1  0
 33 34  2  0
 34 35  1  0
 35 36  2  0
 37 38  1  0
 37 41  1  0
 38 39  1  1
 38 43  1  0
 39 40  2  0
 41 42  1  0
 42 43  1  0
 45 44  1  6
 45 46  1  0
 45 47  1  0
 46 49  1  6
 46 50  1  0
 47 48  2  0
 50 51  1  0
 53 52  1  1
 53 54  1  0
 53 55  1  0
 54 57  1  0
 55 56  2  0
 59 58  1  6
 59 60  1  0
 59 61  1  0
 60 63  1  6
 60 64  1  0
 61 62  2  0
 64 65  1  0
 67 66  1  0
 67 68  1  6
 67 69  1  0
 68 71  1  0
 69 70  2  0
 71 72  2  0
 71 76  1  0
 72 73  1  0
 73 74  2  0
 74 75  1  0
 75 76  2  0
 78 77  1  1
 78 79  1  0
 78 80  1  0
 79 82  1  0
 80 81  2  0
 84 83  1  6
 84 85  1  0
 84 86  1  0
 85 88  1  0
 86 87  2  0
 89 90  1  0
 90 91  1  0
 91 92  2  0
 94 93  1  0
 94 95  1  1
 94 96  1  0
 95 98  1  0
 96 97  2  0
100 99  1  0
100101  1  0
100102  1  6
101104  1  0
102103  2  0
106105  1  0
106107  1  1
106108  1  0
107110  1  0
108109  2  0
110111  1  0
110114  2  0
111112  2  0
112113  1  0
113114  1  0
116115  1  0
116117  1  1
116118  1  0
117120  1  0
118119  2  0
120121  1  0
121122  1  0
122123  1  0
123124  2  0
123125  1  0
127126  1  0
127128  1  1
127129  1  0
128131  1  0
129130  2  0
133132  1  0
133134  1  1
133135  1  0
134137  1  0
135136  2  0
137138  1  0
138139  1  0
139140  1  0
142141  1  0
142143  1  1
142144  1  0
143146  1  0
144145  2  0
147148  1  0
148149  1  0
149150  2  0
152151  1  0
152153  1  6
152154  1  0
153156  1  0
154155  2  0
156157  1  0
157158  1  0
160159  1  0
160161  1  0
160162  1  1
161164  1  0
162163  2  0
166165  1  0
166167  1  0
166168  1  1
167170  1  0
168169  2  0
172171  1  0
172173  1  6
172174  1  0
173176  1  0
174175  2  0
176177  1  0
177178  1  0
178179  1  0
181180  1  1
181182  1  0
181183  1  0
182185  1  6
182186  1  0
183187  1  0
183184  2  0
 47 52  1  0
 96 99  1  0
154159  1  0
 86 89  1  0
168171  1  0
102105  1  0
162165  1  0
 88146  1  0
 91 93  1  0
 12 16  1  0
149151  1  0
 29 37  1  0
 61 66  1  0
118126  1  0
 19 26  1  0
108115  1  0
129132  1  0
174180  1  0
 69 77  1  0
  5  9  1  0
 57170  1  0
 55 58  1  0
135141  1  0
 82 98  1  0
144147  1  0
104164  1  0
 80 83  1  0
 39 44  1  0
M  END
>  <BILN>  (1) 
D-T-H-F-P-I-C(1,3)-I-F-C(2,3)-C(3,3)-G-C(2,3)-C(4,3)-H-R-S-K-C(3,3)-G-M-C(4,3)-C(1,3)-K-T

>  <HELM>  (1) 
PEPTIDE1{D.T.H.F.P.I.C.I.F.C.C.G.C.C.H.R.S.K.C.G.M.C.C.K.T}$PEPTIDE1,PEPTIDE1,7:R3-23:R3|PEPTIDE1,PEPTIDE1,10:R3-13:R3|PEPTIDE1,PEPTIDE1,11:R3-19:R3|PEPTIDE1,PEPTIDE1,14:R3-22:R3$$$

$$$$
