
     RDKit          2D

 77 84  0  0  0  0  0  0  0  0999 V2000
   -2.1560    4.8283   -0.0000 N   0  0  0  0  0  0  0  0  0  0  0  0
   -0.6721    4.6094   -0.0000 C   0  0  0  0  0  0  0  0  0  0  0  0
   -0.7141    6.1088   -0.0000 C   0  0  0  0  0  0  0  0  0  0  0  0
    0.5634    6.8949    0.0000 C   0  0  0  0  0  0  0  0  0  0  0  0
    2.0024    6.4715    0.0000 C   0  0  0  0  0  0  0  0  0  0  0  0
    2.8497    7.7092    0.0000 N   0  0  0  0  0  0  0  0  0  0  0  0
    1.9344    8.8976    0.0000 C   0  0  0  0  0  0  0  0  0  0  0  0
    0.5214    8.3943    0.0000 C   0  0  0  0  0  0  0  0  0  0  0  0
   -0.6210    9.3663    0.0000 C   0  0  0  0  0  0  0  0  0  0  0  0
   -0.3504   10.8417    0.0000 C   0  0  0  0  0  0  0  0  0  0  0  0
    1.0626   11.3450    0.0000 C   0  0  0  0  0  0  0  0  0  0  0  0
    2.2050   10.3730    0.0000 C   0  0  0  0  0  0  0  0  0  0  0  0
    0.6474    3.8960   -0.0000 C   0  0  0  0  0  0  0  0  0  0  0  0
    1.1208    5.3194   -0.0000 O   0  0  0  0  0  0  0  0  0  0  0  0
    1.6434    2.7744   -0.0000 N   0  0  0  0  0  0  0  0  0  0  0  0
    2.1957    1.3798   -0.0000 C   0  0  0  0  0  0  0  0  0  0  0  0
    3.4733    2.1659   -0.0000 C   0  0  0  0  0  0  0  0  0  0  0  0
    2.2378   -0.1196   -0.0000 C   0  0  0  0  0  0  0  0  0  0  0  0
    3.7071    0.1822   -0.0000 O   0  0  0  0  0  0  0  0  0  0  0  0
    4.7928    1.4526    0.0000 C   0  0  0  0  0  0  0  0  0  0  0  0
    6.0703    2.2387    0.0000 C   0  0  0  0  0  0  0  0  0  0  0  0
    7.3899    1.5254    0.0000 C   0  0  0  0  0  0  0  0  0  0  0  0
    8.6674    2.3115    0.0000 N   0  0  0  0  0  0  0  0  0  0  0  0
    1.7644   -1.5429   -0.0000 N   0  0  0  0  0  0  0  0  0  0  0  0
    0.8328   -2.7186   -0.0000 C   0  0  0  0  0  0  0  0  0  0  0  0
    2.1524   -3.4319   -0.0000 C   0  0  0  0  0  0  0  0  0  0  0  0
   -0.4447   -3.5047   -0.0000 C   0  0  0  0  0  0  0  0  0  0  0  0
    0.5513   -4.6263   -0.0000 O   0  0  0  0  0  0  0  0  0  0  0  0
    2.1944   -4.9313   -0.0000 C   0  0  0  0  0  0  0  0  0  0  0  0
    0.9169   -5.7174   -0.0000 C   0  0  0  0  0  0  0  0  0  0  0  0
    0.9589   -7.2168   -0.0000 C   0  0  0  0  0  0  0  0  0  0  0  0
    2.2784   -7.9301   -0.0000 C   0  0  0  0  0  0  0  0  0  0  0  0
    3.5560   -7.1440   -0.0000 C   0  0  0  0  0  0  0  0  0  0  0  0
    3.5139   -5.6446   -0.0000 C   0  0  0  0  0  0  0  0  0  0  0  0
    2.3205   -9.4295   -0.0000 O   0  0  0  0  0  0  0  0  0  0  0  0
   -1.9140   -3.8064   -0.0000 N   0  0  0  0  0  0  0  0  0  0  0  0
   -3.3980   -3.5874   -0.0000 C   0  0  0  0  0  0  0  0  0  0  0  0
   -3.3559   -5.0869   -0.0000 C   0  0  0  0  0  0  0  0  0  0  0  0
   -4.7175   -2.8741   -0.0000 C   0  0  0  0  0  0  0  0  0  0  0  0
   -5.1908   -4.2975   -0.0000 O   0  0  0  0  0  0  0  0  0  0  0  0
   -4.6334   -5.8730   -0.0000 C   0  0  0  0  0  0  0  0  0  0  0  0
   -4.5914   -7.3724   -0.0000 C   0  0  0  0  0  0  0  0  0  0  0  0
   -5.8689   -8.1585   -0.0000 C   0  0  0  0  0  0  0  0  0  0  0  0
   -7.1885   -7.4452   -0.0000 C   0  0  0  0  0  0  0  0  0  0  0  0
   -7.2305   -5.9457   -0.0000 C   0  0  0  0  0  0  0  0  0  0  0  0
   -5.9530   -5.1596   -0.0000 C   0  0  0  0  0  0  0  0  0  0  0  0
   -5.7135   -1.7525   -0.0000 N   0  0  0  0  0  0  0  0  0  0  0  0
   -6.2658   -0.3579   -0.0000 C   0  0  0  0  0  0  0  0  0  0  0  0
   -6.3078    1.1415   -0.0000 C   0  0  0  0  0  0  0  0  0  0  0  0
   -7.7772    0.8397   -0.0000 O   0  0  0  0  0  0  0  0  0  0  0  0
   -6.8692   -2.7088   -0.0000 C   0  0  0  0  0  0  0  0  0  0  0  0
   -8.1357   -1.9052   -0.0000 C   0  0  0  0  0  0  0  0  0  0  0  0
   -7.7628   -0.4522   -0.0000 C   0  0  0  0  0  0  0  0  0  0  0  0
   -9.5804   -2.3087   -0.0000 O   0  0  0  0  0  0  0  0  0  0  0  0
   -5.8345    2.5649   -0.0000 N   0  0  0  0  0  0  0  0  0  0  0  0
   -4.9029    3.7405   -0.0000 C   0  0  0  0  0  0  0  0  0  0  0  0
   -5.8989    4.8621   -0.0000 C   0  0  0  0  0  0  0  0  0  0  0  0
   -3.6254    4.5266   -0.0000 C   0  0  0  0  0  0  0  0  0  0  0  0
   -3.6674    6.0260   -0.0000 O   0  0  0  0  0  0  0  0  0  0  0  0
   -7.3682    4.5603   -0.0000 C   0  0  0  0  0  0  0  0  0  0  0  0
   -8.3642    5.6819   -0.0000 C   0  0  0  0  0  0  0  0  0  0  0  0
   -7.8909    7.1053   -0.0000 C   0  0  0  0  0  0  0  0  0  0  0  0
   -6.4215    7.4070   -0.0000 C   0  0  0  0  0  0  0  0  0  0  0  0
   -5.4255    6.2854   -0.0000 C   0  0  0  0  0  0  0  0  0  0  0  0
    3.6820  -11.6422   -0.0000 C   0  0  0  0  0  0  0  0  0  0  0  0
    2.4045  -12.4283   -0.0000 C   0  0  0  0  0  0  0  0  0  0  0  0
    2.4465  -13.9278   -0.0000 C   0  0  0  0  0  0  0  0  0  0  0  0
    3.7661  -14.6411   -0.0000 C   0  0  0  0  0  0  0  0  0  0  0  0
    5.0436  -13.8550   -0.0000 C   0  0  0  0  0  0  0  0  0  0  0  0
    5.0016  -12.3556   -0.0000 C   0  0  0  0  0  0  0  0  0  0  0  0
    3.6400  -10.1428   -0.0000 C   0  0  0  0  0  0  0  0  0  0  0  0
  -14.6135   -1.0169   -0.0000 C   0  0  0  0  0  0  0  0  0  0  0  0
  -13.1688   -0.6134   -0.0000 C   0  0  0  0  0  0  0  0  0  0  0  0
  -12.0970   -1.6628   -0.0000 N   0  0  0  0  0  0  0  0  0  0  0  0
  -10.6523   -1.2593   -0.0000 C   0  0  0  0  0  0  0  0  0  0  0  0
  -10.2794    0.1936   -0.0000 O   0  0  0  0  0  0  0  0  0  0  0  0
  -15.6853    0.0325   -0.0000 N   0  0  0  0  0  0  0  0  0  0  0  0
  2  1  1  0
  2  3  1  6
  2 13  1  0
  3  4  1  0
  4  5  2  0
  4  8  1  0
  5  6  1  0
  6  7  1  0
  7  8  2  0
  7 12  1  0
  8  9  1  0
  9 10  2  0
 10 11  1  0
 11 12  2  0
 13 14  2  0
 16 15  1  0
 16 17  1  1
 16 18  1  0
 17 20  1  0
 18 19  2  0
 20 21  1  0
 21 22  1  0
 22 23  1  0
 25 24  1  0
 25 26  1  1
 25 27  1  0
 26 29  1  0
 27 28  2  0
 29 30  2  0
 29 34  1  0
 30 31  1  0
 31 32  2  0
 32 33  1  0
 32 35  1  0
 33 34  2  0
 37 36  1  0
 37 38  1  1
 37 39  1  0
 38 41  1  0
 39 40  2  0
 41 42  2  0
 41 46  1  0
 42 43  1  0
 43 44  2  0
 44 45  1  0
 45 46  2  0
 48 47  1  0
 47 51  1  0
 48 49  1  0
 48 53  1  1
 49 50  2  0
 51 52  1  0
 52 53  1  0
 52 54  1  6
 56 55  1  1
 56 57  1  0
 56 58  1  0
 58 59  2  0
 60 61  2  0
 61 62  1  0
 62 63  2  0
 63 64  1  0
 57 60  1  0
 57 64  2  0
 65 66  2  0
 66 67  1  0
 67 68  2  0
 68 69  1  0
 69 70  2  0
 65 70  1  0
 65 71  1  0
 72 73  1  0
 73 74  1  0
 74 75  1  0
 75 76  2  0
 72 77  1  0
 13 15  1  0
  1 58  1  0
 39 47  1  0
 27 36  1  0
 35 71  1  0
 18 24  1  0
 54 75  1  0
 49 55  1  0
M  END
>  <BILN>  (1)
DTrp(1,1)-K-Y(2,3)-F-Hyp(3,3)-Phg(1,2).Bnzyl(2,2).AECbmt(3,2)

>  <HELM>  (1)
PEPTIDE1{[DTrp].K.Y.F.[Hyp].[Phg]}|PEPTIDE2{[Bnzyl]}|PEPTIDE3{[AECbmt]}$PEPTIDE1,PEPTIDE1,1:R1-6:R2|PEPTIDE1,PEPTIDE2,3:R3-1:R2|PEPTIDE1,PEPTIDE3,5:R3-1:R2$$$V2.0

$$$$
